Version 4.1
SHEET 1 936 692
WIRE -2848 -464 -3344 -464
WIRE -2784 -464 -2848 -464
WIRE -2672 -464 -2784 -464
WIRE -1984 -464 -2672 -464
WIRE -1456 -464 -1984 -464
WIRE -1344 -464 -1456 -464
WIRE -1728 -368 -1808 -368
WIRE -1568 -368 -1648 -368
WIRE -2848 -352 -2848 -464
WIRE -1344 -304 -1344 -464
WIRE -1248 -304 -1344 -304
WIRE -1344 -240 -1344 -304
WIRE -1696 -224 -1696 -256
WIRE -1808 -208 -1808 -368
WIRE -1728 -208 -1808 -208
WIRE -1568 -192 -1568 -368
WIRE -1568 -192 -1664 -192
WIRE -1504 -192 -1568 -192
WIRE -1408 -192 -1424 -192
WIRE -1248 -192 -1248 -304
WIRE -1904 -176 -1904 -240
WIRE -1728 -176 -1904 -176
WIRE -2672 -160 -2672 -464
WIRE -1904 -160 -1904 -176
WIRE -1312 -144 -1344 -144
WIRE -1808 -128 -1808 -208
WIRE -2672 -48 -2672 -80
WIRE -2576 -48 -2672 -48
WIRE -2528 -48 -2576 -48
WIRE -2224 -48 -2272 -48
WIRE -2144 -48 -2224 -48
WIRE -2784 -16 -2784 -464
WIRE -1248 0 -1248 -96
WIRE -1248 0 -1456 0
WIRE -1808 16 -1808 -48
WIRE -1456 16 -1456 0
WIRE -1456 16 -1808 16
WIRE -1248 16 -1248 0
WIRE -1984 32 -1984 -464
WIRE -2224 48 -2224 -48
WIRE -2144 48 -2144 -48
WIRE -2576 160 -2576 -48
WIRE -2672 176 -2672 -48
WIRE -2848 352 -2848 -272
WIRE -2848 352 -3344 352
WIRE -2784 352 -2784 48
WIRE -2784 352 -2848 352
WIRE -2672 352 -2672 240
WIRE -2672 352 -2784 352
WIRE -2576 352 -2576 224
WIRE -2576 352 -2672 352
WIRE -2400 352 -2400 48
WIRE -2400 352 -2576 352
WIRE -2224 352 -2224 112
WIRE -2224 352 -2400 352
WIRE -2144 352 -2144 128
WIRE -2144 352 -2224 352
WIRE -1984 352 -1984 96
WIRE -1984 352 -2144 352
WIRE -1904 352 -1904 -80
WIRE -1904 352 -1984 352
WIRE -1248 352 -1248 96
WIRE -1248 352 -1904 352
FLAG -2848 352 0
FLAG -1456 -464 Vin
FLAG -2224 -48 Vcc
FLAG -1696 -256 Vcc
FLAG -1696 -160 0
FLAG -1904 -320 Vcc
SYMBOL res -1264 0 R0
SYMATTR InstName R8
SYMATTR Value 0.5
SYMBOL voltage -2848 -368 R0
WINDOW 123 0 0 Left 0
WINDOW 39 -189 67 Left 2
WINDOW 3 -519 17 Left 2
SYMATTR SpiceLine Rser=1
SYMATTR Value PULSE(0 70 1u 200m 200m 500m 1)
SYMATTR InstName V2
SYMBOL cap -2000 32 R0
SYMATTR InstName C2
SYMATTR Value 1µ
SYMBOL npn -1312 -192 R0
SYMATTR InstName Q1
SYMATTR Value 2N3055
SYMBOL npn -1408 -240 R0
SYMATTR InstName Q3
SYMATTR Value 2N2222
SYMBOL cap -2800 -16 R0
SYMATTR InstName C1
SYMATTR Value 5m
SYMBOL OpAmps\\LT1013 -1696 -256 R0
SYMATTR InstName U1
SYMBOL res -1632 -384 R90
WINDOW 0 0 56 VBottom 2
WINDOW 3 32 56 VTop 2
SYMATTR InstName R1
SYMATTR Value 10k
SYMBOL res -2688 -176 R0
SYMATTR InstName R2
SYMATTR Value 400
SYMBOL cap -2688 176 R0
SYMATTR InstName C3
SYMATTR Value 1µ
SYMBOL cap -2240 48 R0
SYMATTR InstName C4
SYMATTR Value 1µ
SYMBOL res -1824 -144 R0
SYMATTR InstName R3
SYMATTR Value 10k
SYMBOL res -1920 -336 R0
SYMATTR InstName R4
SYMATTR Value 10k
SYMBOL res -1920 -176 R0
SYMATTR InstName R5
SYMATTR Value 5k
SYMBOL res -1408 -208 R90
WINDOW 0 0 56 VBottom 2
WINDOW 3 32 56 VTop 2
SYMATTR InstName R6
SYMATTR Value 50
SYMBOL res -2160 32 R0
SYMATTR InstName R7
SYMATTR Value 1k
SYMBOL diode -2560 224 R180
WINDOW 0 24 64 Left 2
WINDOW 3 24 0 Left 2
SYMATTR InstName D1
SYMATTR Value BZX84B20VLY
SYMATTR Description Diode
SYMATTR Type diode
SYMBOL PowerProducts\\LT1085-12 -2400 -48 R0
SYMATTR InstName U3
TEXT -3192 16 Left 2 !.tran 5 startup
